<?xml version='1.0' encoding='utf-8'?>
<additional>
    <edgeData id="edgedata_s_0_61200_64800" begin="61200" end="64800" file="berlin_s_0_61200_64800_baseline_edgedata.xml" period="3600" withInternal="true" excludeEmpty="true" minSamples="2" trackVehicles="true" />
</additional>