<?xml version='1.0' encoding='utf-8'?>
<additional>
    <edgeData id="edgedata_s_0_32400_36000" begin="32400" end="36000" file="berlin_s_0_32400_36000_baseline_edgedata.xml" period="3600" withInternal="true" excludeEmpty="true" minSamples="2" trackVehicles="true" />
</additional>