<?xml version='1.0' encoding='utf-8'?>
<additional>
    <edgeData id="edgedata_s_0_43200_46800" begin="43200" end="46800" file="berlin_s_0_43200_46800_baseline_edgedata.xml" period="3600" withInternal="true" excludeEmpty="true" minSamples="2" trackVehicles="true" />
</additional>