<?xml version='1.0' encoding='utf-8'?>
<additional>
    <edgeData id="edgedata_s_0_39600_43200" begin="39600" end="43200" file="berlin_s_0_39600_43200_baseline_edgedata.xml" period="3600" withInternal="true" excludeEmpty="true" minSamples="2" trackVehicles="true" />
</additional>